The ``5-text_indentation`` module
============================

This modules defines a function ``text_indentation(text)``

Using ``text_indentation``
---------------------

Import fuunction from the module:

    >>> text_indentation = __import__('5-text_indentation').text_indentation

Usage
=====

Valid text
-----------

    >>> text_indentation("Hello. World")
    Hello.
    <BLANKLINE>
    World

    >>> text_indentation("Nice to meet you. How are you doing?")
    Nice to meet you.
    <BLANKLINE>
    How are you doing?
    <BLANKLINE>

    >>> text_indentation("She said: you're very beautiful. and guess what? she is right.")
    She said:
    <BLANKLINE>
    you're very beautiful.
    <BLANKLINE>
    and guess what?
    <BLANKLINE>
    she is right.
    <BLANKLINE>

    >>> text_indentation("   Hi there.")
    Hi there.
    <BLANKLINE>

    >>> text_indentation("          ")

    >>> text_indentation("Hello.   ")
    Hello.
    <BLANKLINE>

    >>> text_indentation("    Woah now.    This is messy.   ")
    Woah now.
    <BLANKLINE>
    This is messy.
    <BLANKLINE>

    >>> text_indentation("No ending period, what bad grammar")
    No ending period, what bad grammar

    >>> text_indentation("Let's print a new-line! Here goes:\nPrinted.")
    Let's print a new-line! Here goes:
    <BLANKLINE>
    <BLANKLINE>
    Printed.
    <BLANKLINE>

    >>> text_indentation("\n\n\n We just printed three new lines.")
    <BLANKLINE>
    <BLANKLINE>
    <BLANKLINE>
    We just printed three new lines.
    <BLANKLINE>

    >>> text_indentation("A sneaky \n new line.")
    A sneaky 
    new line.
    <BLANKLINE>

    >>> text_indentation("Lorem ipsum dolor sit amet, consectetur adipiscing "
    ... "elit. Quonam modo? Utrum igitur tibi litteram videor an totas paginas "
    ... "commovere? Non autem hoc: igitur ne illud quidem. Fortasse id optimum, "
    ... "sed ubi illud: Plus semper voluptatis? Teneo, inquit, finem illi videri "
    ... "nihil dolere. Transfer idem ad modestiam vel temperantiam, quae est "
    ... "moderatio cupiditatum rationi oboediens. Si id dicis, vicimus. Inde "
    ... "sermone vario sex illa a Dipylo stadia confecimus. Sin aliud quid "
    ... "voles, postea. Quae animi affectio suum cuique tribuens atque hanc, "
    ... "quam dico. Utinam quidem dicerent alium alio beatiorem! Iam ruinas "
    ... "videres") # doctest: +NORMALIZE_WHITESPACE
    Lorem ipsum dolor sit amet, consectetur adipiscing elit.
    <BLANKLINE>
    Quonam modo?
    <BLANKLINE>
    Utrum igitur tibi litteram videor an totas paginas commovere?
    <BLANKLINE>
    Non autem hoc:
    <BLANKLINE>
    igitur ne illud quidem.
    <BLANKLINE>
    Fortasse id optimum, sed ubi illud:
    <BLANKLINE>
    Plus semper voluptatis?
    <BLANKLINE>
    Teneo, inquit, finem illi videri nihil dolere.
    <BLANKLINE>
    Transfer idem ad modestiam vel temperantiam, 
    quae est moderatio cupiditatum rationi oboediens.
    <BLANKLINE>
    Si id dicis, vicimus.
    <BLANKLINE>
    Inde sermone vario sex illa a Dipylo stadia confecimus.
    <BLANKLINE>
    Sin aliud quid voles, postea.
    <BLANKLINE>
    Quae animi affectio suum cuique tribuens atque hanc, quam dico.
    <BLANKLINE>
    Utinam quidem dicerent alium alio beatiorem! Iam ruinas videres

Invalid Text
-------------

    >>> text_indentation(1)
    Traceback (most recent call last):
    TypeError: text must be a string

    >>> text_indentation({1: "hi"})
    Traceback (most recent call last):
    TypeError: text must be a string

    >>> text_indentation([1, "hi"])
    Traceback (most recent call last):
    TypeError: text must be a string

    >>> text_indentation((1, "hi"))
    Traceback (most recent call last):
    TypeError: text must be a string

    >>> text_indentation(None)
    Traceback (most recent call last):
    TypeError: text must be a string

    >>> text_indentation()
    Traceback (most recent call last):
    TypeError: text_indentation() missing 1 required positional argument: 'text'